site133


  5  4  0  0  0  0  0  0  0  0999 V2000
    8.2670    1.0717   -3.6818 O   0  0  0  0  0  0  0  0  0  0  0  0
   10.2183    0.7336   -2.5448 O   0  0  0  0  0  0  0  0  0  0  0  0
    9.1199    1.3139   -2.7843 C   0  0  0  0  0  0  0  0  0  0  0  0
    8.8064    2.4733   -1.8346 C   0  0  0  0  0  0  0  0  0  0  0  0
    7.4709    3.1550   -2.0605 C   0  0  0  0  0  0  0  0  0  0  0  0
  1  3  2  0  0  0
  2  3  2  0  0  0
  4  5  1  0  0  0
  4  3  1  0  0  0
M  END
> <minimizedAffinity>
-2.96522

> <CNNscore>
0.9200060368

> <CNNaffinity>
3.2533259392

> <CNN_VS>
2.9930794239

> <CNNaffinity_variance>
0.2039362639

$$$$
site133


  5  4  0  0  0  0  0  0  0  0999 V2000
   10.2380    0.7718   -2.5265 O   0  0  0  0  0  0  0  0  0  0  0  0
    8.2915    1.1653   -3.6540 O   0  0  0  0  0  0  0  0  0  0  0  0
    9.1356    1.3506   -2.7299 C   0  0  0  0  0  0  0  0  0  0  0  0
    8.7362    2.4377   -1.7285 C   0  0  0  0  0  0  0  0  0  0  0  0
    7.4670    3.1961   -2.0650 C   0  0  0  0  0  0  0  0  0  0  0  0
  1  3  2  0  0  0
  2  3  2  0  0  0
  4  5  1  0  0  0
  4  3  1  0  0  0
M  END
> <minimizedAffinity>
-2.97209

> <CNNscore>
0.9184381366

> <CNNaffinity>
3.2440216541

> <CNN_VS>
2.9794332981

> <CNNaffinity_variance>
0.2102773935

$$$$
site133


  5  4  0  0  0  0  0  0  0  0999 V2000
    9.8909    3.1805   -2.4963 O   0  0  0  0  0  0  0  0  0  0  0  0
    9.8634    0.8972   -2.4730 O   0  0  0  0  0  0  0  0  0  0  0  0
    9.3388    2.0479   -2.4341 C   0  0  0  0  0  0  0  0  0  0  0  0
    7.8146    2.0344   -2.2890 C   0  0  0  0  0  0  0  0  0  0  0  0
    7.1813    3.3732   -1.9637 C   0  0  0  0  0  0  0  0  0  0  0  0
  1  3  2  0  0  0
  2  3  2  0  0  0
  4  5  1  0  0  0
  4  3  1  0  0  0
M  END
> <minimizedAffinity>
-2.61503

> <CNNscore>
0.8778378367

> <CNNaffinity>
3.2022831440

> <CNN_VS>
2.8110852242

> <CNNaffinity_variance>
0.2191291749

$$$$
site133


  5  4  0  0  0  0  0  0  0  0999 V2000
    5.9886    1.1363   -2.1081 O   0  0  0  0  0  0  0  0  0  0  0  0
    8.0502    1.0191   -3.0833 O   0  0  0  0  0  0  0  0  0  0  0  0
    7.1209    1.5847   -2.4374 C   0  0  0  0  0  0  0  0  0  0  0  0
    7.4428    3.0185   -2.0073 C   0  0  0  0  0  0  0  0  0  0  0  0
    8.6925    3.1783   -1.1634 C   0  0  0  0  0  0  0  0  0  0  0  0
  1  3  2  0  0  0
  2  3  2  0  0  0
  4  5  1  0  0  0
  4  3  1  0  0  0
M  END
> <minimizedAffinity>
-2.89870

> <CNNscore>
0.8715750575

> <CNNaffinity>
3.2301273346

> <CNN_VS>
2.8152983189

> <CNNaffinity_variance>
0.2880251408

$$$$
site133


  5  4  0  0  0  0  0  0  0  0999 V2000
    6.5638    1.5159   -2.1215 O   0  0  0  0  0  0  0  0  0  0  0  0
    7.0003    3.7457   -2.3510 O   0  0  0  0  0  0  0  0  0  0  0  0
    7.3012    2.5396   -2.1151 C   0  0  0  0  0  0  0  0  0  0  0  0
    8.7777    2.3198   -1.7749 C   0  0  0  0  0  0  0  0  0  0  0  0
    9.4834    1.2607   -2.5993 C   0  0  0  0  0  0  0  0  0  0  0  0
  1  3  2  0  0  0
  2  3  2  0  0  0
  4  5  1  0  0  0
  4  3  1  0  0  0
M  END
> <minimizedAffinity>
-2.84560

> <CNNscore>
0.7976974249

> <CNNaffinity>
3.1001031399

> <CNN_VS>
2.4729442596

> <CNNaffinity_variance>
0.2052879333

$$$$
site133


  5  4  0  0  0  0  0  0  0  0999 V2000
    8.4366    2.2482   -0.9038 O   0  0  0  0  0  0  0  0  0  0  0  0
    6.5999    1.5190   -2.0480 O   0  0  0  0  0  0  0  0  0  0  0  0
    7.4860    2.3624   -1.7252 C   0  0  0  0  0  0  0  0  0  0  0  0
    7.3623    3.7058   -2.4493 C   0  0  0  0  0  0  0  0  0  0  0  0
    8.3849    3.9514   -3.5416 C   0  0  0  0  0  0  0  0  0  0  0  0
  1  3  2  0  0  0
  2  3  2  0  0  0
  4  5  1  0  0  0
  4  3  1  0  0  0
M  END
> <minimizedAffinity>
-1.55050

> <CNNscore>
0.7878163457

> <CNNaffinity>
3.1020965576

> <CNN_VS>
2.4438824654

> <CNNaffinity_variance>
0.1401841342

$$$$
site133


  5  4  0  0  0  0  0  0  0  0999 V2000
    7.4794   -0.6684   -4.9640 O   0  0  0  0  0  0  0  0  0  0  0  0
    7.6946   -0.2650   -7.2014 O   0  0  0  0  0  0  0  0  0  0  0  0
    7.2263   -0.8564   -6.1856 C   0  0  0  0  0  0  0  0  0  0  0  0
    6.2103   -1.9533   -6.5151 C   0  0  0  0  0  0  0  0  0  0  0  0
    4.8390   -1.7766   -5.8926 C   0  0  0  0  0  0  0  0  0  0  0  0
  1  3  2  0  0  0
  2  3  2  0  0  0
  4  5  1  0  0  0
  4  3  1  0  0  0
M  END
> <minimizedAffinity>
-2.88526

> <CNNscore>
0.7800997496

> <CNNaffinity>
3.1199011803

> <CNN_VS>
2.4338340759

> <CNNaffinity_variance>
0.2942362428

$$$$
site133


  5  4  0  0  0  0  0  0  0  0999 V2000
    7.6111   -0.3646   -7.2084 O   0  0  0  0  0  0  0  0  0  0  0  0
    7.1763   -2.5540   -7.6908 O   0  0  0  0  0  0  0  0  0  0  0  0
    7.1164   -1.5040   -6.9874 C   0  0  0  0  0  0  0  0  0  0  0  0
    6.3254   -1.6683   -5.6868 C   0  0  0  0  0  0  0  0  0  0  0  0
    4.8252   -1.4864   -5.8116 C   0  0  0  0  0  0  0  0  0  0  0  0
  1  3  2  0  0  0
  2  3  2  0  0  0
  4  5  1  0  0  0
  4  3  1  0  0  0
M  END
> <minimizedAffinity>
-3.00199

> <CNNscore>
0.7583265305

> <CNNaffinity>
3.0347287655

> <CNN_VS>
2.3013153076

> <CNNaffinity_variance>
0.2948177755

$$$$
site133


  5  4  0  0  0  0  0  0  0  0999 V2000
    9.3714    0.7770   -2.9372 O   0  0  0  0  0  0  0  0  0  0  0  0
   11.6372    1.0147   -2.7806 O   0  0  0  0  0  0  0  0  0  0  0  0
   10.5299    0.4411   -2.5673 C   0  0  0  0  0  0  0  0  0  0  0  0
   10.6407   -0.8413   -1.7382 C   0  0  0  0  0  0  0  0  0  0  0  0
   12.0434   -1.3965   -1.5852 C   0  0  0  0  0  0  0  0  0  0  0  0
  1  3  2  0  0  0
  2  3  2  0  0  0
  4  5  1  0  0  0
  4  3  1  0  0  0
M  END
> <minimizedAffinity>
1.13350

> <CNNscore>
0.7479981780

> <CNNaffinity>
2.8149795532

> <CNN_VS>
2.1055996418

> <CNNaffinity_variance>
0.3566801548

$$$$
site133


  5  4  0  0  0  0  0  0  0  0999 V2000
   13.2100    0.9906   -2.5272 O   0  0  0  0  0  0  0  0  0  0  0  0
   12.2073   -0.7892   -1.5066 O   0  0  0  0  0  0  0  0  0  0  0  0
   13.0850   -0.2277   -2.2243 C   0  0  0  0  0  0  0  0  0  0  0  0
   14.1322   -1.1879   -2.7951 C   0  0  0  0  0  0  0  0  0  0  0  0
   14.1222   -2.5849   -2.2057 C   0  0  0  0  0  0  0  0  0  0  0  0
  1  3  2  0  0  0
  2  3  2  0  0  0
  4  5  1  0  0  0
  4  3  1  0  0  0
M  END
> <minimizedAffinity>
-0.12665

> <CNNscore>
0.7447822094

> <CNNaffinity>
2.7134053707

> <CNN_VS>
2.0208959579

> <CNNaffinity_variance>
0.1944430023

$$$$
