site11959


  5  4  0  0  0  0  0  0  0  0999 V2000
   10.4690    3.9899   -1.6819 O   0  0  0  0  0  0  0  0  0  0  0  0
    8.6632    4.3692   -3.0273 O   0  0  0  0  0  0  0  0  0  0  0  0
    9.4314    3.6570   -2.3177 C   0  0  0  0  0  0  0  0  0  0  0  0
    9.0203    2.1842   -2.2378 C   0  0  0  0  0  0  0  0  0  0  0  0
    9.7028    1.3776   -1.1503 C   0  0  0  0  0  0  0  0  0  0  0  0
  1  3  2  0  0  0
  2  3  2  0  0  0
  4  5  1  0  0  0
  4  3  1  0  0  0
M  END
> <minimizedAffinity>
-3.28736

> <CNNscore>
0.8841471672

> <CNNaffinity>
3.3844666481

> <CNN_VS>
2.9923665524

> <CNNaffinity_variance>
0.3170885444

$$$$
site11959


  5  4  0  0  0  0  0  0  0  0999 V2000
   11.7167    3.9677    0.0267 O   0  0  0  0  0  0  0  0  0  0  0  0
   10.3578    3.9222   -1.8080 O   0  0  0  0  0  0  0  0  0  0  0  0
   10.7938    3.5025   -0.6968 C   0  0  0  0  0  0  0  0  0  0  0  0
   10.0827    2.2487   -0.1805 C   0  0  0  0  0  0  0  0  0  0  0  0
    9.3562    1.4343   -1.2332 C   0  0  0  0  0  0  0  0  0  0  0  0
  1  3  2  0  0  0
  2  3  2  0  0  0
  4  5  1  0  0  0
  4  3  1  0  0  0
M  END
> <minimizedAffinity>
-3.07476

> <CNNscore>
0.8830597401

> <CNNaffinity>
3.2684531212

> <CNN_VS>
2.8862392902

> <CNNaffinity_variance>
0.2671074867

$$$$
site11959


  5  4  0  0  0  0  0  0  0  0999 V2000
    8.6202    4.3871   -3.0482 O   0  0  0  0  0  0  0  0  0  0  0  0
   10.4352    4.0068   -1.7156 O   0  0  0  0  0  0  0  0  0  0  0  0
    9.3944    3.6735   -2.3533 C   0  0  0  0  0  0  0  0  0  0  0  0
    9.0476    2.1860   -2.2482 C   0  0  0  0  0  0  0  0  0  0  0  0
    9.8190    1.4120   -1.1969 C   0  0  0  0  0  0  0  0  0  0  0  0
  1  3  2  0  0  0
  2  3  2  0  0  0
  4  5  1  0  0  0
  4  3  1  0  0  0
M  END
> <minimizedAffinity>
-3.29914

> <CNNscore>
0.8818321228

> <CNNaffinity>
3.3744854927

> <CNN_VS>
2.9757297039

> <CNNaffinity_variance>
0.3214499354

$$$$
site11959


  5  4  0  0  0  0  0  0  0  0999 V2000
   10.4421    3.9540   -1.7459 O   0  0  0  0  0  0  0  0  0  0  0  0
   11.6727    3.8606    0.1755 O   0  0  0  0  0  0  0  0  0  0  0  0
   10.7735    3.4750   -0.6268 C   0  0  0  0  0  0  0  0  0  0  0  0
    9.9899    2.2511   -0.1447 C   0  0  0  0  0  0  0  0  0  0  0  0
    9.3472    1.4196   -1.2378 C   0  0  0  0  0  0  0  0  0  0  0  0
  1  3  2  0  0  0
  2  3  2  0  0  0
  4  5  1  0  0  0
  4  3  1  0  0  0
M  END
> <minimizedAffinity>
-3.04844

> <CNNscore>
0.8667355180

> <CNNaffinity>
3.2250671387

> <CNN_VS>
2.7952802181

> <CNNaffinity_variance>
0.2909097373

$$$$
site11959


  5  4  0  0  0  0  0  0  0  0999 V2000
   10.9802    3.9766   -1.0060 O   0  0  0  0  0  0  0  0  0  0  0  0
    9.9507    2.1483   -0.1048 O   0  0  0  0  0  0  0  0  0  0  0  0
   10.1724    3.0076   -1.0067 C   0  0  0  0  0  0  0  0  0  0  0  0
    9.3240    2.8221   -2.2677 C   0  0  0  0  0  0  0  0  0  0  0  0
    8.9275    4.1018   -2.9777 C   0  0  0  0  0  0  0  0  0  0  0  0
  1  3  2  0  0  0
  2  3  2  0  0  0
  4  5  1  0  0  0
  4  3  1  0  0  0
M  END
> <minimizedAffinity>
-3.16001

> <CNNscore>
0.8258765340

> <CNNaffinity>
3.1804163456

> <CNN_VS>
2.6266312599

> <CNNaffinity_variance>
0.3226397634

$$$$
site11959


  5  4  0  0  0  0  0  0  0  0999 V2000
   14.9672    6.7412    3.5996 O   0  0  0  0  0  0  0  0  0  0  0  0
   13.4992    8.4746    3.3651 O   0  0  0  0  0  0  0  0  0  0  0  0
   14.6476    7.9444    3.3951 C   0  0  0  0  0  0  0  0  0  0  0  0
   15.7953    8.9267    3.1459 C   0  0  0  0  0  0  0  0  0  0  0  0
   16.6152    8.6642    1.8976 C   0  0  0  0  0  0  0  0  0  0  0  0
  1  3  2  0  0  0
  2  3  2  0  0  0
  4  5  1  0  0  0
  4  3  1  0  0  0
M  END
> <minimizedAffinity>
-2.65118

> <CNNscore>
0.7626343369

> <CNNaffinity>
2.7943615913

> <CNN_VS>
2.1310760975

> <CNNaffinity_variance>
0.1596405804

$$$$
site11959


  5  4  0  0  0  0  0  0  0  0999 V2000
   14.9845    6.7031    3.5800 O   0  0  0  0  0  0  0  0  0  0  0  0
   17.2378    6.5785    3.9296 O   0  0  0  0  0  0  0  0  0  0  0  0
   16.1564    7.1667    3.6370 C   0  0  0  0  0  0  0  0  0  0  0  0
   16.3235    8.6527    3.3078 C   0  0  0  0  0  0  0  0  0  0  0  0
   15.0332    9.4394    3.1839 C   0  0  0  0  0  0  0  0  0  0  0  0
  1  3  2  0  0  0
  2  3  2  0  0  0
  4  5  1  0  0  0
  4  3  1  0  0  0
M  END
> <minimizedAffinity>
-2.73195

> <CNNscore>
0.7483670712

> <CNNaffinity>
2.7239818573

> <CNN_VS>
2.0385382175

> <CNNaffinity_variance>
0.1770170331

$$$$
site11959


  5  4  0  0  0  0  0  0  0  0999 V2000
   10.1581    3.4925   -1.8572 O   0  0  0  0  0  0  0  0  0  0  0  0
    9.8497    1.2472   -1.5779 O   0  0  0  0  0  0  0  0  0  0  0  0
   10.1259    2.4205   -1.1930 C   0  0  0  0  0  0  0  0  0  0  0  0
   10.4673    2.5248    0.2959 C   0  0  0  0  0  0  0  0  0  0  0  0
    9.2841    2.4429    1.2407 C   0  0  0  0  0  0  0  0  0  0  0  0
  1  3  2  0  0  0
  2  3  2  0  0  0
  4  5  1  0  0  0
  4  3  1  0  0  0
M  END
> <minimizedAffinity>
-3.02908

> <CNNscore>
0.7178037763

> <CNNaffinity>
3.0393772125

> <CNN_VS>
2.1816763878

> <CNNaffinity_variance>
0.2746536732

$$$$
site11959


  5  4  0  0  0  0  0  0  0  0999 V2000
   16.8704    6.4753    3.7337 O   0  0  0  0  0  0  0  0  0  0  0  0
   16.5734    8.4781    2.6777 O   0  0  0  0  0  0  0  0  0  0  0  0
   16.1859    7.4131    3.2403 C   0  0  0  0  0  0  0  0  0  0  0  0
   14.6638    7.2667    3.3183 C   0  0  0  0  0  0  0  0  0  0  0  0
   13.8862    8.5683    3.3344 C   0  0  0  0  0  0  0  0  0  0  0  0
  1  3  2  0  0  0
  2  3  2  0  0  0
  4  5  1  0  0  0
  4  3  1  0  0  0
M  END
> <minimizedAffinity>
-2.37211

> <CNNscore>
0.7036105394

> <CNNaffinity>
2.6752824783

> <CNN_VS>
1.8823570013

> <CNNaffinity_variance>
0.1497144401

$$$$
site11959


  5  4  0  0  0  0  0  0  0  0999 V2000
   11.9490    4.8441    1.0460 O   0  0  0  0  0  0  0  0  0  0  0  0
   11.1385    3.9730   -0.9031 O   0  0  0  0  0  0  0  0  0  0  0  0
   11.6153    3.9094    0.2672 C   0  0  0  0  0  0  0  0  0  0  0  0
   11.8055    2.4819    0.7870 C   0  0  0  0  0  0  0  0  0  0  0  0
   11.7837    2.3318    2.2958 C   0  0  0  0  0  0  0  0  0  0  0  0
  1  3  2  0  0  0
  2  3  2  0  0  0
  4  5  1  0  0  0
  4  3  1  0  0  0
M  END
> <minimizedAffinity>
-2.77627

> <CNNscore>
0.6905240417

> <CNNaffinity>
2.8287544250

> <CNN_VS>
1.9533228874

> <CNNaffinity_variance>
0.2977856994

$$$$
