site1661


 14 14  0  0  0  0  0  0  0  0999 V2000
   -0.3939    4.2304  -10.0275 C   0  0  0  0  0  0  0  0  0  0  0  0
    0.5281    5.3110   -9.3989 C   0  0  0  0  0  0  0  0  0  0  0  0
    1.1746    6.1965  -10.4489 C   0  0  0  0  0  0  0  0  0  0  0  0
    0.2709    3.5566  -11.2510 C   0  0  0  0  0  0  0  0  0  0  0  0
    2.0296    5.3556  -11.3849 C   0  0  0  0  0  0  0  0  0  0  0  0
    1.3837    4.0626  -11.8399 C   0  0  0  0  0  0  0  0  0  0  0  0
   -1.7220    4.8928  -10.4605 C   0  0  0  0  0  0  0  0  0  0  0  0
   -0.6955    3.2168   -8.8964 C   0  0  0  0  0  0  0  0  0  0  0  0
    2.1273    3.4431  -13.0008 C   0  0  0  0  0  0  0  0  0  0  0  0
   -0.3895    2.3596  -11.7455 C   0  0  0  0  0  0  0  0  0  0  0  0
   -0.0509    1.7838  -12.8948 C   0  0  0  0  0  0  0  0  0  0  0  0
   -1.2073    0.4418  -14.4884 O   0  0  0  0  0  0  0  0  0  0  0  0
   -0.7658    0.5580  -13.3473 C   0  0  0  0  0  0  0  0  0  0  0  0
   -0.9446   -0.5389  -12.3308 C   0  0  0  0  0  0  0  0  0  0  0  0
 12 13  2  0  0  0
  1  2  1  0  0  0
  1  4  1  0  0  0
  1  7  1  0  0  0
  1  8  1  0  0  0
  2  3  1  0  0  0
  3  5  1  0  0  0
  4  6  2  0  0  0
  4 10  1  0  0  0
  5  6  1  0  0  0
  6  9  1  0  0  0
 10 11  2  0  0  0
 11 13  1  0  0  0
 13 14  1  0  0  0
M  END
> <minimizedAffinity>
-6.12318

> <CNNscore>
0.7055776715

> <CNNaffinity>
5.3574748039

> <CNN_VS>
3.7801146507

> <CNNaffinity_variance>
0.0206378289

$$$$
site1661


 14 14  0  0  0  0  0  0  0  0999 V2000
    1.2965    5.7498  -11.6841 C   0  0  0  0  0  0  0  0  0  0  0  0
    1.0957    6.7915  -10.5495 C   0  0  0  0  0  0  0  0  0  0  0  0
    1.1327    6.1552   -9.1717 C   0  0  0  0  0  0  0  0  0  0  0  0
    0.4577    4.4732  -11.4398 C   0  0  0  0  0  0  0  0  0  0  0  0
    0.0227    5.1226   -9.0447 C   0  0  0  0  0  0  0  0  0  0  0  0
   -0.1356    4.2144  -10.2473 C   0  0  0  0  0  0  0  0  0  0  0  0
    2.7946    5.3762  -11.7642 C   0  0  0  0  0  0  0  0  0  0  0  0
    0.8974    6.4670  -12.9970 C   0  0  0  0  0  0  0  0  0  0  0  0
   -1.0136    3.0236   -9.9382 C   0  0  0  0  0  0  0  0  0  0  0  0
    0.3678    3.5554  -12.5636 C   0  0  0  0  0  0  0  0  0  0  0  0
    0.0356    2.2771  -12.4131 C   0  0  0  0  0  0  0  0  0  0  0  0
    0.0166    1.8231  -14.7522 O   0  0  0  0  0  0  0  0  0  0  0  0
   -0.0394    1.3866  -13.6047 C   0  0  0  0  0  0  0  0  0  0  0  0
   -0.2081   -0.0869  -13.3426 C   0  0  0  0  0  0  0  0  0  0  0  0
 12 13  2  0  0  0
  1  2  1  0  0  0
  1  4  1  0  0  0
  1  7  1  0  0  0
  1  8  1  0  0  0
  2  3  1  0  0  0
  3  5  1  0  0  0
  4  6  2  0  0  0
  4 10  1  0  0  0
  5  6  1  0  0  0
  6  9  1  0  0  0
 10 11  2  0  0  0
 11 13  1  0  0  0
 13 14  1  0  0  0
M  END
> <minimizedAffinity>
-6.02204

> <CNNscore>
0.6755518317

> <CNNaffinity>
5.2465248108

> <CNN_VS>
3.5442993641

> <CNNaffinity_variance>
0.0501248837

$$$$
site1661


 14 14  0  0  0  0  0  0  0  0999 V2000
    0.7709    4.2224  -11.9804 C   0  0  0  0  0  0  0  0  0  0  0  0
    1.0219    5.6546  -11.4340 C   0  0  0  0  0  0  0  0  0  0  0  0
    1.4496    5.6474   -9.9774 C   0  0  0  0  0  0  0  0  0  0  0  0
   -0.0389    3.3650  -10.9793 C   0  0  0  0  0  0  0  0  0  0  0  0
    0.3645    5.0152   -9.1189 C   0  0  0  0  0  0  0  0  0  0  0  0
   -0.2375    3.7488   -9.6931 C   0  0  0  0  0  0  0  0  0  0  0  0
    2.1324    3.5445  -12.2581 C   0  0  0  0  0  0  0  0  0  0  0  0
    0.0279    4.4038  -13.3267 C   0  0  0  0  0  0  0  0  0  0  0  0
   -1.0571    3.0023   -8.6658 C   0  0  0  0  0  0  0  0  0  0  0  0
   -0.5517    2.1080  -11.4993 C   0  0  0  0  0  0  0  0  0  0  0  0
   -0.2715    1.6784  -12.7256 C   0  0  0  0  0  0  0  0  0  0  0  0
   -1.1055    0.1807  -14.3808 O   0  0  0  0  0  0  0  0  0  0  0  0
   -0.8277    0.3808  -13.2004 C   0  0  0  0  0  0  0  0  0  0  0  0
   -1.0565   -0.6826  -12.1585 C   0  0  0  0  0  0  0  0  0  0  0  0
 12 13  2  0  0  0
  1  2  1  0  0  0
  1  4  1  0  0  0
  1  7  1  0  0  0
  1  8  1  0  0  0
  2  3  1  0  0  0
  3  5  1  0  0  0
  4  6  2  0  0  0
  4 10  1  0  0  0
  5  6  1  0  0  0
  6  9  1  0  0  0
 10 11  2  0  0  0
 11 13  1  0  0  0
 13 14  1  0  0  0
M  END
> <minimizedAffinity>
-5.54503

> <CNNscore>
0.6598991752

> <CNNaffinity>
5.3389472961

> <CNN_VS>
3.5231668949

> <CNNaffinity_variance>
0.0185665675

$$$$
site1661


 14 14  0  0  0  0  0  0  0  0999 V2000
   -1.1648    0.3550  -12.8968 C   0  0  0  0  0  0  0  0  0  0  0  0
   -1.1119    0.4891  -14.4434 C   0  0  0  0  0  0  0  0  0  0  0  0
    0.0988    1.2766  -14.9109 C   0  0  0  0  0  0  0  0  0  0  0  0
   -0.8445    1.6972  -12.1976 C   0  0  0  0  0  0  0  0  0  0  0  0
    0.0610    2.6829  -14.3320 C   0  0  0  0  0  0  0  0  0  0  0  0
   -0.3138    2.7523  -12.8654 C   0  0  0  0  0  0  0  0  0  0  0  0
   -0.1443   -0.7169  -12.4499 C   0  0  0  0  0  0  0  0  0  0  0  0
   -2.5890   -0.1516  -12.5612 C   0  0  0  0  0  0  0  0  0  0  0  0
   -0.0202    4.1127  -12.2760 C   0  0  0  0  0  0  0  0  0  0  0  0
   -1.1250    1.7461  -10.7720 C   0  0  0  0  0  0  0  0  0  0  0  0
   -0.1695    1.9213   -9.8647 C   0  0  0  0  0  0  0  0  0  0  0  0
    0.0666    1.2796   -7.5821 O   0  0  0  0  0  0  0  0  0  0  0  0
   -0.5211    1.9626   -8.4179 C   0  0  0  0  0  0  0  0  0  0  0  0
   -1.6532    2.8724   -8.0192 C   0  0  0  0  0  0  0  0  0  0  0  0
 12 13  2  0  0  0
  1  2  1  0  0  0
  1  4  1  0  0  0
  1  7  1  0  0  0
  1  8  1  0  0  0
  2  3  1  0  0  0
  3  5  1  0  0  0
  4  6  2  0  0  0
  4 10  1  0  0  0
  5  6  1  0  0  0
  6  9  1  0  0  0
 10 11  2  0  0  0
 11 13  1  0  0  0
 13 14  1  0  0  0
M  END
> <minimizedAffinity>
-1.24012

> <CNNscore>
0.6406004429

> <CNNaffinity>
5.1673550606

> <CNN_VS>
3.3102099895

> <CNNaffinity_variance>
0.0653780922

$$$$
site1661


 14 14  0  0  0  0  0  0  0  0999 V2000
    0.0236    4.9573  -12.1294 C   0  0  0  0  0  0  0  0  0  0  0  0
   -1.0446    5.2090  -11.0301 C   0  0  0  0  0  0  0  0  0  0  0  0
   -0.5288    6.1106   -9.9231 C   0  0  0  0  0  0  0  0  0  0  0  0
    1.4103    4.6507  -11.5161 C   0  0  0  0  0  0  0  0  0  0  0  0
    0.6767    5.4718   -9.2501 C   0  0  0  0  0  0  0  0  0  0  0  0
    1.6845    4.8639  -10.2044 C   0  0  0  0  0  0  0  0  0  0  0  0
    0.1226    6.2096  -13.0305 C   0  0  0  0  0  0  0  0  0  0  0  0
   -0.5103    3.7794  -12.9810 C   0  0  0  0  0  0  0  0  0  0  0  0
    2.9894    4.5441   -9.5122 C   0  0  0  0  0  0  0  0  0  0  0  0
    2.4092    4.1435  -12.4425 C   0  0  0  0  0  0  0  0  0  0  0  0
    3.3534    4.9194  -12.9654 C   0  0  0  0  0  0  0  0  0  0  0  0
    4.3627    3.1440  -14.1930 O   0  0  0  0  0  0  0  0  0  0  0  0
    4.3490    4.3397  -13.9094 C   0  0  0  0  0  0  0  0  0  0  0  0
    5.3629    5.2874  -14.4945 C   0  0  0  0  0  0  0  0  0  0  0  0
 12 13  2  0  0  0
  1  2  1  0  0  0
  1  4  1  0  0  0
  1  7  1  0  0  0
  1  8  1  0  0  0
  2  3  1  0  0  0
  3  5  1  0  0  0
  4  6  2  0  0  0
  4 10  1  0  0  0
  5  6  1  0  0  0
  6  9  1  0  0  0
 10 11  2  0  0  0
 11 13  1  0  0  0
 13 14  1  0  0  0
M  END
> <minimizedAffinity>
-2.00073

> <CNNscore>
0.6020152569

> <CNNaffinity>
5.0937852859

> <CNN_VS>
3.0665364265

> <CNNaffinity_variance>
0.1999514401

$$$$
site1661


 14 14  0  0  0  0  0  0  0  0999 V2000
    4.9663    2.3508   -8.3506 C   0  0  0  0  0  0  0  0  0  0  0  0
    6.2299    3.1947   -8.0282 C   0  0  0  0  0  0  0  0  0  0  0  0
    7.0424    2.6016   -6.8912 C   0  0  0  0  0  0  0  0  0  0  0  0
    4.2255    1.9201   -7.0627 C   0  0  0  0  0  0  0  0  0  0  0  0
    6.2001    2.5397   -5.6259 C   0  0  0  0  0  0  0  0  0  0  0  0
    4.7861    2.0356   -5.8325 C   0  0  0  0  0  0  0  0  0  0  0  0
    5.3899    1.0956   -9.1474 C   0  0  0  0  0  0  0  0  0  0  0  0
    4.0828    3.2373   -9.2623 C   0  0  0  0  0  0  0  0  0  0  0  0
    4.1172    1.6909   -4.5218 C   0  0  0  0  0  0  0  0  0  0  0  0
    2.8988    1.3589   -7.2584 C   0  0  0  0  0  0  0  0  0  0  0  0
    1.9318    2.0212   -7.8855 C   0  0  0  0  0  0  0  0  0  0  0  0
    0.3224    0.2910   -7.5787 O   0  0  0  0  0  0  0  0  0  0  0  0
    0.5926    1.3915   -8.0545 C   0  0  0  0  0  0  0  0  0  0  0  0
   -0.4231    2.1596   -8.8587 C   0  0  0  0  0  0  0  0  0  0  0  0
 12 13  2  0  0  0
  1  2  1  0  0  0
  1  4  1  0  0  0
  1  7  1  0  0  0
  1  8  1  0  0  0
  2  3  1  0  0  0
  3  5  1  0  0  0
  4  6  2  0  0  0
  4 10  1  0  0  0
  5  6  1  0  0  0
  6  9  1  0  0  0
 10 11  2  0  0  0
 11 13  1  0  0  0
 13 14  1  0  0  0
M  END
> <minimizedAffinity>
20.56760

> <CNNscore>
0.5770890713

> <CNNaffinity>
5.3213305473

> <CNN_VS>
3.0708816051

> <CNNaffinity_variance>
0.5920411348

$$$$
site1661


 14 14  0  0  0  0  0  0  0  0999 V2000
   -0.0029    3.9034  -10.8545 C   0  0  0  0  0  0  0  0  0  0  0  0
    0.8553    4.3615   -9.6435 C   0  0  0  0  0  0  0  0  0  0  0  0
    1.9630    5.3157  -10.0522 C   0  0  0  0  0  0  0  0  0  0  0  0
    0.8796    3.5303  -12.0690 C   0  0  0  0  0  0  0  0  0  0  0  0
    2.8970    4.6363  -11.0423 C   0  0  0  0  0  0  0  0  0  0  0  0
    2.1980    3.8453  -12.1294 C   0  0  0  0  0  0  0  0  0  0  0  0
   -0.9673    5.0458  -11.2481 C   0  0  0  0  0  0  0  0  0  0  0  0
   -0.8417    2.7024  -10.3528 C   0  0  0  0  0  0  0  0  0  0  0  0
    3.1437    3.4745  -13.2486 C   0  0  0  0  0  0  0  0  0  0  0  0
    0.1983    2.8426  -13.1536 C   0  0  0  0  0  0  0  0  0  0  0  0
   -0.0243    1.5322  -13.1363 C   0  0  0  0  0  0  0  0  0  0  0  0
   -0.8980    1.4602  -15.3520 O   0  0  0  0  0  0  0  0  0  0  0  0
   -0.7282    0.8859  -14.2788 C   0  0  0  0  0  0  0  0  0  0  0  0
   -1.2467   -0.5105  -14.0555 C   0  0  0  0  0  0  0  0  0  0  0  0
 12 13  2  0  0  0
  1  2  1  0  0  0
  1  4  1  0  0  0
  1  7  1  0  0  0
  1  8  1  0  0  0
  2  3  1  0  0  0
  3  5  1  0  0  0
  4  6  2  0  0  0
  4 10  1  0  0  0
  5  6  1  0  0  0
  6  9  1  0  0  0
 10 11  2  0  0  0
 11 13  1  0  0  0
 13 14  1  0  0  0
M  END
> <minimizedAffinity>
-6.33526

> <CNNscore>
0.5753068924

> <CNNaffinity>
5.1652917862

> <CNN_VS>
2.9716279507

> <CNNaffinity_variance>
0.0715254471

$$$$
site1661


 14 14  0  0  0  0  0  0  0  0999 V2000
   -3.1137    7.2920  -15.3295 C   0  0  0  0  0  0  0  0  0  0  0  0
   -3.4191    8.2330  -16.5271 C   0  0  0  0  0  0  0  0  0  0  0  0
   -2.2425    8.3523  -17.4789 C   0  0  0  0  0  0  0  0  0  0  0  0
   -1.7110    7.5628  -14.7362 C   0  0  0  0  0  0  0  0  0  0  0  0
   -1.0363    8.9216  -16.7475 C   0  0  0  0  0  0  0  0  0  0  0  0
   -0.7889    8.3244  -15.3770 C   0  0  0  0  0  0  0  0  0  0  0  0
   -3.1976    5.8247  -15.8090 C   0  0  0  0  0  0  0  0  0  0  0  0
   -4.2407    7.5372  -14.2964 C   0  0  0  0  0  0  0  0  0  0  0  0
    0.5807    8.6835  -14.8483 C   0  0  0  0  0  0  0  0  0  0  0  0
   -1.4353    6.9262  -13.4585 C   0  0  0  0  0  0  0  0  0  0  0  0
   -0.8354    5.7434  -13.3679 C   0  0  0  0  0  0  0  0  0  0  0  0
    0.5559    4.9810  -11.5901 O   0  0  0  0  0  0  0  0  0  0  0  0
   -0.5806    5.1434  -12.0287 C   0  0  0  0  0  0  0  0  0  0  0  0
   -1.7872    4.7211  -11.2323 C   0  0  0  0  0  0  0  0  0  0  0  0
 12 13  2  0  0  0
  1  2  1  0  0  0
  1  4  1  0  0  0
  1  7  1  0  0  0
  1  8  1  0  0  0
  2  3  1  0  0  0
  3  5  1  0  0  0
  4  6  2  0  0  0
  4 10  1  0  0  0
  5  6  1  0  0  0
  6  9  1  0  0  0
 10 11  2  0  0  0
 11 13  1  0  0  0
 13 14  1  0  0  0
M  END
> <minimizedAffinity>
2.93611

> <CNNscore>
0.5714672208

> <CNNaffinity>
4.2182855606

> <CNN_VS>
2.4106118679

> <CNNaffinity_variance>
0.9938956499

$$$$
site1661


 14 14  0  0  0  0  0  0  0  0999 V2000
   -3.0101    6.7882  -14.3321 C   0  0  0  0  0  0  0  0  0  0  0  0
   -3.2519    8.0095  -15.2611 C   0  0  0  0  0  0  0  0  0  0  0  0
   -2.0950    8.2437  -16.2156 C   0  0  0  0  0  0  0  0  0  0  0  0
   -1.5721    6.7828  -13.7618 C   0  0  0  0  0  0  0  0  0  0  0  0
   -0.8191    8.5122  -15.4319 C   0  0  0  0  0  0  0  0  0  0  0  0
   -0.5962    7.5879  -14.2520 C   0  0  0  0  0  0  0  0  0  0  0  0
   -3.2521    5.4897  -15.1356 C   0  0  0  0  0  0  0  0  0  0  0  0
   -4.0793    6.8829  -13.2162 C   0  0  0  0  0  0  0  0  0  0  0  0
    0.8159    7.6862  -13.7223 C   0  0  0  0  0  0  0  0  0  0  0  0
   -1.3274    5.8398  -12.6827 C   0  0  0  0  0  0  0  0  0  0  0  0
   -0.2163    5.1136  -12.6111 C   0  0  0  0  0  0  0  0  0  0  0  0
    1.0441    3.5899  -11.2817 O   0  0  0  0  0  0  0  0  0  0  0  0
   -0.0242    4.1641  -11.4797 C   0  0  0  0  0  0  0  0  0  0  0  0
   -1.2136    3.9190  -10.5887 C   0  0  0  0  0  0  0  0  0  0  0  0
 12 13  2  0  0  0
  1  2  1  0  0  0
  1  4  1  0  0  0
  1  7  1  0  0  0
  1  8  1  0  0  0
  2  3  1  0  0  0
  3  5  1  0  0  0
  4  6  2  0  0  0
  4 10  1  0  0  0
  5  6  1  0  0  0
  6  9  1  0  0  0
 10 11  2  0  0  0
 11 13  1  0  0  0
 13 14  1  0  0  0
M  END
> <minimizedAffinity>
0.57005

> <CNNscore>
0.5465936661

> <CNNaffinity>
4.3793563843

> <CNN_VS>
2.3937284946

> <CNNaffinity_variance>
0.5261315107

$$$$
site1661


 14 14  0  0  0  0  0  0  0  0999 V2000
    0.1106    4.0879  -12.2989 C   0  0  0  0  0  0  0  0  0  0  0  0
   -0.4452    4.2826  -10.8615 C   0  0  0  0  0  0  0  0  0  0  0  0
   -0.1542    3.0915   -9.9665 C   0  0  0  0  0  0  0  0  0  0  0  0
   -0.1912    2.6700  -12.8387 C   0  0  0  0  0  0  0  0  0  0  0  0
   -0.8000    1.8391  -10.5395 C   0  0  0  0  0  0  0  0  0  0  0  0
   -0.6283    1.6677  -12.0353 C   0  0  0  0  0  0  0  0  0  0  0  0
    1.6390    4.3202  -12.2827 C   0  0  0  0  0  0  0  0  0  0  0  0
   -0.5457    5.1924  -13.1631 C   0  0  0  0  0  0  0  0  0  0  0  0
   -0.9972    0.2729  -12.4854 C   0  0  0  0  0  0  0  0  0  0  0  0
    0.0489    2.4737  -14.2590 C   0  0  0  0  0  0  0  0  0  0  0  0
   -0.9406    2.3882  -15.1425 C   0  0  0  0  0  0  0  0  0  0  0  0
    0.4882    1.8540  -16.9731 O   0  0  0  0  0  0  0  0  0  0  0  0
   -0.6295    2.1868  -16.5851 C   0  0  0  0  0  0  0  0  0  0  0  0
   -1.7496    2.4294  -17.5623 C   0  0  0  0  0  0  0  0  0  0  0  0
 12 13  2  0  0  0
  1  2  1  0  0  0
  1  4  1  0  0  0
  1  7  1  0  0  0
  1  8  1  0  0  0
  2  3  1  0  0  0
  3  5  1  0  0  0
  4  6  2  0  0  0
  4 10  1  0  0  0
  5  6  1  0  0  0
  6  9  1  0  0  0
 10 11  2  0  0  0
 11 13  1  0  0  0
 13 14  1  0  0  0
M  END
> <minimizedAffinity>
-3.22527

> <CNNscore>
0.5345043540

> <CNNaffinity>
4.9526796341

> <CNN_VS>
2.6472287178

> <CNNaffinity_variance>
0.1147086471

$$$$
