site1554


  5  4  0  0  0  0  0  0  0  0999 V2000
    5.8666    0.8337   -7.3879 O   0  0  0  0  0  0  0  0  0  0  0  0
    5.2796    3.0364   -7.2535 O   0  0  0  0  0  0  0  0  0  0  0  0
    5.1176    1.8280   -7.5918 C   0  0  0  0  0  0  0  0  0  0  0  0
    3.8187    1.5633   -8.3582 C   0  0  0  0  0  0  0  0  0  0  0  0
    3.3214    0.1315   -8.3182 C   0  0  0  0  0  0  0  0  0  0  0  0
  1  3  2  0  0  0
  2  3  2  0  0  0
  4  5  1  0  0  0
  4  3  1  0  0  0
M  END
> <minimizedAffinity>
-3.41273

> <CNNscore>
0.8886575699

> <CNNaffinity>
3.3067119122

> <CNN_VS>
2.9385344982

> <CNNaffinity_variance>
0.3408655822

$$$$
site1554


  5  4  0  0  0  0  0  0  0  0999 V2000
    5.3044    3.0782   -7.2575 O   0  0  0  0  0  0  0  0  0  0  0  0
    5.8263    0.8585   -7.3789 O   0  0  0  0  0  0  0  0  0  0  0  0
    5.1073    1.8777   -7.5911 C   0  0  0  0  0  0  0  0  0  0  0  0
    3.8191    1.5828   -8.3643 C   0  0  0  0  0  0  0  0  0  0  0  0
    3.3553    0.1396   -8.3271 C   0  0  0  0  0  0  0  0  0  0  0  0
  1  3  2  0  0  0
  2  3  2  0  0  0
  4  5  1  0  0  0
  4  3  1  0  0  0
M  END
> <minimizedAffinity>
-3.42464

> <CNNscore>
0.8871610761

> <CNNaffinity>
3.3036293983

> <CNN_VS>
2.9308514595

> <CNNaffinity_variance>
0.3437637985

$$$$
site1554


  5  4  0  0  0  0  0  0  0  0999 V2000
    4.4751   -1.1529   -6.3034 O   0  0  0  0  0  0  0  0  0  0  0  0
    6.1266    0.1237   -7.2292 O   0  0  0  0  0  0  0  0  0  0  0  0
    4.9342   -0.2726   -7.0817 C   0  0  0  0  0  0  0  0  0  0  0  0
    3.9248    0.4333   -7.9912 C   0  0  0  0  0  0  0  0  0  0  0  0
    4.2528    1.8745   -8.3299 C   0  0  0  0  0  0  0  0  0  0  0  0
  1  3  2  0  0  0
  2  3  2  0  0  0
  4  5  1  0  0  0
  4  3  1  0  0  0
M  END
> <minimizedAffinity>
-3.10704

> <CNNscore>
0.8470962644

> <CNNaffinity>
3.1653704643

> <CNN_VS>
2.6813735962

> <CNNaffinity_variance>
0.3983141780

$$$$
site1554


  5  4  0  0  0  0  0  0  0  0999 V2000
   11.8712   -1.7102   -3.3240 O   0  0  0  0  0  0  0  0  0  0  0  0
   10.6092   -3.3284   -4.3256 O   0  0  0  0  0  0  0  0  0  0  0  0
   10.8095   -2.1928   -3.8049 C   0  0  0  0  0  0  0  0  0  0  0  0
    9.5684   -1.2971   -3.7644 C   0  0  0  0  0  0  0  0  0  0  0  0
    9.6268   -0.1509   -2.7733 C   0  0  0  0  0  0  0  0  0  0  0  0
  1  3  2  0  0  0
  2  3  2  0  0  0
  4  5  1  0  0  0
  4  3  1  0  0  0
M  END
> <minimizedAffinity>
-2.60341

> <CNNscore>
0.8277717233

> <CNNaffinity>
2.9859559536

> <CNN_VS>
2.4716899395

> <CNNaffinity_variance>
0.2650690675

$$$$
site1554


  5  4  0  0  0  0  0  0  0  0999 V2000
    9.0313   -1.5970   -4.5191 O   0  0  0  0  0  0  0  0  0  0  0  0
   10.2888   -0.4362   -3.0072 O   0  0  0  0  0  0  0  0  0  0  0  0
    9.8625   -1.4823   -3.5771 C   0  0  0  0  0  0  0  0  0  0  0  0
   10.4560   -2.7806   -3.0236 C   0  0  0  0  0  0  0  0  0  0  0  0
   11.9515   -2.9438   -3.2135 C   0  0  0  0  0  0  0  0  0  0  0  0
  1  3  2  0  0  0
  2  3  2  0  0  0
  4  5  1  0  0  0
  4  3  1  0  0  0
M  END
> <minimizedAffinity>
-2.66707

> <CNNscore>
0.8144179583

> <CNNaffinity>
2.9872119427

> <CNN_VS>
2.4328391552

> <CNNaffinity_variance>
0.2024057359

$$$$
site1554


  5  4  0  0  0  0  0  0  0  0999 V2000
    5.8456    0.8462   -7.4105 O   0  0  0  0  0  0  0  0  0  0  0  0
    4.2123    2.0702   -8.4343 O   0  0  0  0  0  0  0  0  0  0  0  0
    4.6694    1.0711   -7.8070 C   0  0  0  0  0  0  0  0  0  0  0  0
    3.6238   -0.0043   -7.4991 C   0  0  0  0  0  0  0  0  0  0  0  0
    3.8254   -0.7516   -6.1952 C   0  0  0  0  0  0  0  0  0  0  0  0
  1  3  2  0  0  0
  2  3  2  0  0  0
  4  5  1  0  0  0
  4  3  1  0  0  0
M  END
> <minimizedAffinity>
-3.16138

> <CNNscore>
0.8142659068

> <CNNaffinity>
3.1389918327

> <CNN_VS>
2.5559740067

> <CNNaffinity_variance>
0.3033501506

$$$$
site1554


  5  4  0  0  0  0  0  0  0  0999 V2000
    8.8412   -3.6143   -4.2811 O   0  0  0  0  0  0  0  0  0  0  0  0
   10.6582   -4.9971   -4.2497 O   0  0  0  0  0  0  0  0  0  0  0  0
    9.9887   -3.9801   -3.9058 C   0  0  0  0  0  0  0  0  0  0  0  0
   10.6970   -3.0814   -2.8884 C   0  0  0  0  0  0  0  0  0  0  0  0
   12.0605   -2.5704   -3.3117 C   0  0  0  0  0  0  0  0  0  0  0  0
  1  3  2  0  0  0
  2  3  2  0  0  0
  4  5  1  0  0  0
  4  3  1  0  0  0
M  END
> <minimizedAffinity>
-2.73083

> <CNNscore>
0.7720572352

> <CNNaffinity>
2.8595023155

> <CNN_VS>
2.2076995373

> <CNNaffinity_variance>
0.1352619678

$$$$
site1554


  5  4  0  0  0  0  0  0  0  0999 V2000
    8.0290   -1.8862   -5.1246 O   0  0  0  0  0  0  0  0  0  0  0  0
    8.8747   -3.7589   -4.1286 O   0  0  0  0  0  0  0  0  0  0  0  0
    8.8491   -2.5258   -4.4107 C   0  0  0  0  0  0  0  0  0  0  0  0
    9.9890   -1.7183   -3.7838 C   0  0  0  0  0  0  0  0  0  0  0  0
    9.5665   -0.4610   -3.0489 C   0  0  0  0  0  0  0  0  0  0  0  0
  1  3  2  0  0  0
  2  3  2  0  0  0
  4  5  1  0  0  0
  4  3  1  0  0  0
M  END
> <minimizedAffinity>
-2.60807

> <CNNscore>
0.7703565955

> <CNNaffinity>
3.0132517815

> <CNN_VS>
2.3212783337

> <CNNaffinity_variance>
0.2641054094

$$$$
site1554


  5  4  0  0  0  0  0  0  0  0999 V2000
    8.9872   -3.8094   -4.2006 O   0  0  0  0  0  0  0  0  0  0  0  0
   10.6825   -3.1720   -2.8098 O   0  0  0  0  0  0  0  0  0  0  0  0
    9.7723   -2.9785   -3.6671 C   0  0  0  0  0  0  0  0  0  0  0  0
    9.6254   -1.5179   -4.1024 C   0  0  0  0  0  0  0  0  0  0  0  0
    9.6659   -0.4986   -2.9806 C   0  0  0  0  0  0  0  0  0  0  0  0
  1  3  2  0  0  0
  2  3  2  0  0  0
  4  5  1  0  0  0
  4  3  1  0  0  0
M  END
> <minimizedAffinity>
-2.64434

> <CNNscore>
0.7668256760

> <CNNaffinity>
2.9286170006

> <CNN_VS>
2.2457387447

> <CNNaffinity_variance>
0.2176693976

$$$$
site1554


  5  4  0  0  0  0  0  0  0  0999 V2000
    1.8198   -0.7272   -2.1823 O   0  0  0  0  0  0  0  0  0  0  0  0
    3.7159   -0.8227   -3.4513 O   0  0  0  0  0  0  0  0  0  0  0  0
    3.0232   -0.4645   -2.4550 C   0  0  0  0  0  0  0  0  0  0  0  0
    3.7780    0.4137   -1.4533 C   0  0  0  0  0  0  0  0  0  0  0  0
    4.9889   -0.2313   -0.8075 C   0  0  0  0  0  0  0  0  0  0  0  0
  1  3  2  0  0  0
  2  3  2  0  0  0
  4  5  1  0  0  0
  4  3  1  0  0  0
M  END
> <minimizedAffinity>
1.86515

> <CNNscore>
0.7433314323

> <CNNaffinity>
3.0717413425

> <CNN_VS>
2.2833218575

> <CNNaffinity_variance>
0.4119529128

$$$$
