site11959


  5  4  0  0  0  0  0  0  0  0999 V2000
   10.4635    4.0206   -1.7002 O   0  0  0  0  0  0  0  0  0  0  0  0
    8.6412    4.3583   -3.0344 O   0  0  0  0  0  0  0  0  0  0  0  0
    9.4245    3.6659   -2.3216 C   0  0  0  0  0  0  0  0  0  0  0  0
    9.0322    2.1896   -2.2165 C   0  0  0  0  0  0  0  0  0  0  0  0
    9.8139    1.3807   -1.1997 C   0  0  0  0  0  0  0  0  0  0  0  0
  1  3  2  0  0  0
  2  3  2  0  0  0
  4  5  1  0  0  0
  4  3  1  0  0  0
M  END
> <minimizedAffinity>
-3.27389

> <CNNscore>
0.8826597333

> <CNNaffinity>
3.3793690205

> <CNN_VS>
2.9828329086

> <CNNaffinity_variance>
0.3183935285

$$$$
site11959


  5  4  0  0  0  0  0  0  0  0999 V2000
    8.6055    4.3742   -3.0307 O   0  0  0  0  0  0  0  0  0  0  0  0
   10.4321    3.9937   -1.7140 O   0  0  0  0  0  0  0  0  0  0  0  0
    9.3836    3.6613   -2.3394 C   0  0  0  0  0  0  0  0  0  0  0  0
    9.0313    2.1759   -2.2220 C   0  0  0  0  0  0  0  0  0  0  0  0
    9.8226    1.4007   -1.1865 C   0  0  0  0  0  0  0  0  0  0  0  0
  1  3  2  0  0  0
  2  3  2  0  0  0
  4  5  1  0  0  0
  4  3  1  0  0  0
M  END
> <minimizedAffinity>
-3.29765

> <CNNscore>
0.8821693659

> <CNNaffinity>
3.3741207123

> <CNN_VS>
2.9765458107

> <CNNaffinity_variance>
0.3177108169

$$$$
site11959


  5  4  0  0  0  0  0  0  0  0999 V2000
    9.0127    3.3801   -2.8159 O   0  0  0  0  0  0  0  0  0  0  0  0
   10.7132    3.8959   -1.3817 O   0  0  0  0  0  0  0  0  0  0  0  0
    9.7416    3.2027   -1.8016 C   0  0  0  0  0  0  0  0  0  0  0  0
    9.4261    1.9806   -0.9349 C   0  0  0  0  0  0  0  0  0  0  0  0
    9.4589    2.2202    0.5620 C   0  0  0  0  0  0  0  0  0  0  0  0
  1  3  2  0  0  0
  2  3  2  0  0  0
  4  5  1  0  0  0
  4  3  1  0  0  0
M  END
> <minimizedAffinity>
-3.14809

> <CNNscore>
0.8157790899

> <CNNaffinity>
3.2453956604

> <CNN_VS>
2.6475260258

> <CNNaffinity_variance>
0.2407852709

$$$$
site11959


  5  4  0  0  0  0  0  0  0  0999 V2000
   10.6464    3.8807   -1.3859 O   0  0  0  0  0  0  0  0  0  0  0  0
    9.1565    2.8718   -2.7920 O   0  0  0  0  0  0  0  0  0  0  0  0
    9.8320    2.9798   -1.7276 C   0  0  0  0  0  0  0  0  0  0  0  0
    9.6112    1.8396   -0.7299 C   0  0  0  0  0  0  0  0  0  0  0  0
    9.4888    2.2614    0.7215 C   0  0  0  0  0  0  0  0  0  0  0  0
  1  3  2  0  0  0
  2  3  2  0  0  0
  4  5  1  0  0  0
  4  3  1  0  0  0
M  END
> <minimizedAffinity>
-3.18807

> <CNNscore>
0.8097456694

> <CNNaffinity>
3.2297084332

> <CNN_VS>
2.6152424812

> <CNNaffinity_variance>
0.2228450328

$$$$
site11959


  5  4  0  0  0  0  0  0  0  0999 V2000
   11.1080    3.9858   -0.8792 O   0  0  0  0  0  0  0  0  0  0  0  0
   10.5987    2.3891    0.6719 O   0  0  0  0  0  0  0  0  0  0  0  0
   10.5558    2.9270   -0.4726 C   0  0  0  0  0  0  0  0  0  0  0  0
    9.7034    2.1631   -1.4896 C   0  0  0  0  0  0  0  0  0  0  0  0
    9.1490    2.9965   -2.6286 C   0  0  0  0  0  0  0  0  0  0  0  0
  1  3  2  0  0  0
  2  3  2  0  0  0
  4  5  1  0  0  0
  4  3  1  0  0  0
M  END
> <minimizedAffinity>
-3.09792

> <CNNscore>
0.8093465567

> <CNNaffinity>
3.1640172005

> <CNN_VS>
2.5607864857

> <CNNaffinity_variance>
0.3539381921

$$$$
site11959


  5  4  0  0  0  0  0  0  0  0999 V2000
   13.8026   -0.8092   -1.4525 O   0  0  0  0  0  0  0  0  0  0  0  0
   15.1199    0.9677   -0.8849 O   0  0  0  0  0  0  0  0  0  0  0  0
   14.7657   -0.2468   -0.8628 C   0  0  0  0  0  0  0  0  0  0  0  0
   15.6488   -1.1388    0.0140 C   0  0  0  0  0  0  0  0  0  0  0  0
   15.6434   -2.6119   -0.3452 C   0  0  0  0  0  0  0  0  0  0  0  0
  1  3  2  0  0  0
  2  3  2  0  0  0
  4  5  1  0  0  0
  4  3  1  0  0  0
M  END
> <minimizedAffinity>
2.01432

> <CNNscore>
0.7472500205

> <CNNaffinity>
3.0529859066

> <CNN_VS>
2.2813436985

> <CNNaffinity_variance>
0.2556290329

$$$$
site11959


  5  4  0  0  0  0  0  0  0  0999 V2000
   11.1605    4.0381   -0.8205 O   0  0  0  0  0  0  0  0  0  0  0  0
   12.0371    3.8905    1.2830 O   0  0  0  0  0  0  0  0  0  0  0  0
   11.2420    3.5756    0.3504 C   0  0  0  0  0  0  0  0  0  0  0  0
   10.2461    2.4744    0.7244 C   0  0  0  0  0  0  0  0  0  0  0  0
    8.8509    2.6395    0.1541 C   0  0  0  0  0  0  0  0  0  0  0  0
  1  3  2  0  0  0
  2  3  2  0  0  0
  4  5  1  0  0  0
  4  3  1  0  0  0
M  END
> <minimizedAffinity>
-2.54034

> <CNNscore>
0.7306475639

> <CNNaffinity>
2.9606773853

> <CNN_VS>
2.1632118225

> <CNNaffinity_variance>
0.2357212007

$$$$
site11959


  5  4  0  0  0  0  0  0  0  0999 V2000
    9.8436    1.2405   -1.5713 O   0  0  0  0  0  0  0  0  0  0  0  0
   10.2039    3.4812   -1.8247 O   0  0  0  0  0  0  0  0  0  0  0  0
   10.1407    2.3995   -1.1713 C   0  0  0  0  0  0  0  0  0  0  0  0
   10.4759    2.5478    0.3153 C   0  0  0  0  0  0  0  0  0  0  0  0
    9.3032    2.3932    1.2640 C   0  0  0  0  0  0  0  0  0  0  0  0
  1  3  2  0  0  0
  2  3  2  0  0  0
  4  5  1  0  0  0
  4  3  1  0  0  0
M  END
> <minimizedAffinity>
-3.02519

> <CNNscore>
0.7189574242

> <CNNaffinity>
3.0356564522

> <CNN_VS>
2.1825077534

> <CNNaffinity_variance>
0.2733435929

$$$$
site11959


  5  4  0  0  0  0  0  0  0  0999 V2000
    9.5937    2.3665   -0.0876 O   0  0  0  0  0  0  0  0  0  0  0  0
   10.5151    3.8121   -1.5963 O   0  0  0  0  0  0  0  0  0  0  0  0
   10.4724    3.1682   -0.5079 C   0  0  0  0  0  0  0  0  0  0  0  0
   11.6705    3.4177    0.4123 C   0  0  0  0  0  0  0  0  0  0  0  0
   11.7374    2.5366    1.6445 C   0  0  0  0  0  0  0  0  0  0  0  0
  1  3  2  0  0  0
  2  3  2  0  0  0
  4  5  1  0  0  0
  4  3  1  0  0  0
M  END
> <minimizedAffinity>
-2.76070

> <CNNscore>
0.6755387187

> <CNNaffinity>
2.8980543613

> <CNN_VS>
1.9577479362

> <CNNaffinity_variance>
0.3321396410

$$$$
site11959


  5  4  0  0  0  0  0  0  0  0999 V2000
   11.8459    4.8548    1.6996 O   0  0  0  0  0  0  0  0  0  0  0  0
   12.2103    4.2632   -0.4757 O   0  0  0  0  0  0  0  0  0  0  0  0
   11.9352    4.0416    0.7393 C   0  0  0  0  0  0  0  0  0  0  0  0
   11.6804    2.5669    1.0626 C   0  0  0  0  0  0  0  0  0  0  0  0
   11.8468    2.1834    2.5202 C   0  0  0  0  0  0  0  0  0  0  0  0
  1  3  2  0  0  0
  2  3  2  0  0  0
  4  5  1  0  0  0
  4  3  1  0  0  0
M  END
> <minimizedAffinity>
-2.56931

> <CNNscore>
0.6525133252

> <CNNaffinity>
2.7514932156

> <CNN_VS>
1.7953859568

> <CNNaffinity_variance>
0.2665573359

$$$$
